test/results/case14/base/network_solved.json
{"converter":{},"sn":{"1":{"bus":{"4":{"zone":1,"bus_i":4,"bus_type":1,"name":"Bus 4     HV","vmax":1.06,"source_id":["bus",4],"area":1,"vmin":0.94,"index":4,"va":-0.15123088268921958,"vm":1.0144610827734593,"base_kv":0.0},"1":{"zone":1,"bus_i":1,"bus_type":3,"name":"Bus 1     HV","vmax":1.06,"source_id":["bus",1],"area":1,"vmin":0.94,"index":1,"va":-2.806771445986161e-35,"vm":1.06,"base_kv":0.0},"12":{"zone":1,"bus_i":12,"bus_type":1,"name":"Bus 12    LV","vmax":1.06,"source_id":["bus",12],"area":1,"vmin":0.94,"index":12,"va":-0.2361909538656755,"vm":1.0448205015997862,"base_kv":0.0},"2":{"zone":1,"bus_i":2,"bus_type":2,"name":"Bus 2     HV","vmax":1.06,"source_id":["bus",2],"area":1,"vmin":0.94,"index":2,"va":-0.07020271773556633,"vm":1.0407532434903044,"base_kv":0.0},"6":{"zone":1,"bus_i":6,"bus_type":2,"name":"Bus 6     LV","vmax":1.06,"source_id":["bus",6],"area":1,"vmin":0.94,"index":6,"va":-0.22146931174907672,"vm":1.06,"base_kv":0.0},"11":{"zone":1,"bus_i":11,"bus_type":1,"name":"Bus 11    LV","vmax":1.06,"source_id":["bus",11],"area":1,"vmin":0.94,"index":11,"va":-0.22848065795654948,"vm":1.0460097331678664,"base_kv":0.0},"13":{"zone":1,"bus_i":13,"bus_type":1,"name":"Bus 13    LV","vmax":1.06,"source_id":["bus",13],"area":1,"vmin":0.94,"index":13,"va":-0.23706098793508817,"vm":1.039948987451586,"base_kv":0.0},"5":{"zone":1,"bus_i":5,"bus_type":1,"name":"Bus 5     HV","vmax":1.06,"source_id":["bus",5],"area":1,"vmin":0.94,"index":5,"va":-0.12965079396241305,"vm":1.016362795057865,"base_kv":0.0},"14":{"zone":1,"bus_i":14,"bus_type":1,"name":"Bus 14    LV","vmax":1.06,"source_id":["bus",14],"area":1,"vmin":0.94,"index":14,"va":-0.2491303919111437,"vm":1.0238888973595897,"base_kv":0.0},"7":{"zone":1,"bus_i":7,"bus_type":1,"name":"Bus 7     ZV","vmax":1.06,"source_id":["bus",7],"area":1,"vmin":0.94,"index":7,"va":-0.19526562759192365,"vm":1.0463471701283305,"base_kv":0.0},"8":{"zone":1,"bus_i":8,"bus_type":2,"name":"Bus 8     TV","vmax":1.06,"source_id":["bus",8],"area":1,"vmin":0.94,"index":8,"va":-0.18177360513997462,"vm":1.06,"base_kv":0.0},"10":{"zone":1,"bus_i":10,"bus_type":1,"name":"Bus 10    LV","vmax":1.06,"source_id":["bus",10],"area":1,"vmin":0.94,"index":10,"va":-0.23095792230282675,"vm":1.0391369742808187,"base_kv":0.0},"9":{"zone":1,"bus_i":9,"bus_type":1,"name":"Bus 9     LV","vmax":1.06,"source_id":["bus",9],"area":1,"vmin":0.94,"index":9,"va":-0.22684341240604608,"vm":1.0436993936327703,"base_kv":0.0},"3":{"zone":1,"bus_i":3,"bus_type":2,"name":"Bus 3     HV","vmax":1.06,"source_id":["bus",3],"area":1,"vmin":0.94,"index":3,"va":-0.1732399330023784,"vm":1.0156254533363382,"base_kv":0.0}},"source_type":"matpower","f_min":60,"name":"case14","dcline":{},"source_version":"2","gen":{"4":{"apf":0.0,"qc1max":0.0,"pg":0.0,"model":2,"shutdown":0.0,"startup":0.0,"qc2max":0.0,"ramp_agc":0.0,"qg":0.11545902661001574,"gen_bus":6,"pmax":1.0,"ramp_10":0.0,"vg":1.07,"mbase":100.0,"source_id":["gen",4],"pc2":0.0,"index":4,"cost":[100.0,4000.0,0.0],"qmax":0.24,"gen_status":1,"qmin":-0.06,"qc1min":0.0,"qc2min":0.0,"pc1":0.0,"ramp_q":0.0,"ramp_30":0.0,"ncost":3,"pmin":0.0},"1":{"apf":0.0,"qc1max":0.0,"pg":1.9433026156825783,"model":2,"shutdown":0.0,"startup":0.0,"qc2max":0.0,"ramp_agc":0.0,"qg":0.0,"gen_bus":1,"pmax":3.324,"ramp_10":0.0,"vg":1.06,"mbase":100.0,"source_id":["gen",1],"pc2":0.0,"index":1,"cost":[430.292599,2000.0,0.0],"qmax":0.1,"gen_status":1,"qmin":0.0,"qc1min":0.0,"qc2min":0.0,"pc1":0.0,"ramp_q":0.0,"ramp_30":0.0,"ncost":3,"pmin":0.0},"5":{"apf":0.0,"qc1max":0.0,"pg":0.08494990649958226,"model":2,"shutdown":0.0,"startup":0.0,"qc2max":0.0,"ramp_agc":0.0,"qg":0.08273039654389282,"gen_bus":8,"pmax":1.0,"ramp_10":0.0,"vg":1.09,"mbase":100.0,"source_id":["gen",5],"pc2":0.0,"index":5,"cost":[100.0,4000.0,0.0],"qmax":0.24,"gen_status":1,"qmin":-0.06,"qc1min":0.0,"qc2min":0.0,"pc1":0.0,"ramp_q":0.0,"ramp_30":0.0,"ncost":3,"pmin":0.0},"2":{"apf":0.0,"qc1max":0.0,"pg":0.3671917776183814,"model":2,"shutdown":0.0,"startup":0.0,"qc2max":0.0,"ramp_agc":0.0,"qg":0.23685278295114437,"gen_bus":2,"pmax":1.4,"ramp_10":0.0,"vg":1.045,"mbase":100.0,"source_id":["gen",2],"pc2":0.0,"index":2,"cost":[2500.0,2000.0,0.0],"qmax":0.5,"gen_status":1,"qmin":-0.4,"qc1min":0.0,"qc2min":0.0,"pc1":0.0,"ramp_q":0.0,"ramp_30":0.0,"ncost":3,"pmin":0.0},"3":{"apf":0.0,"qc1max":0.0,"pg":0.28742774651023106,"model":2,"shutdown":0.0,"startup":0.0,"qc2max":0.0,"ramp_agc":0.0,"qg":0.24126906958798738,"gen_bus":3,"pmax":1.0,"ramp_10":0.0,"vg":1.01,"mbase":100.0,"source_id":["gen",3],"pc2":0.0,"index":3,"cost":[100.0,4000.0,0.0],"qmax":0.4,"gen_status":1,"qmin":0.0,"qc1min":0.0,"qc2min":0.0,"pc1":0.0,"ramp_q":0.0,"ramp_30":0.0,"ncost":3,"pmin":0.0}},"branch":{"4":{"br_r":0.05811,"shift":0.0,"angle":0.08102816495365325,"pt":-0.4763103177652207,"br_x":0.17632,"g_to":0.0,"g_fr":0.0,"source_id":["branch",4],"b_fr":0.017,"f_bus":2,"br_status":1,"t_bus":4,"b_to":0.017,"index":4,"qf":-0.004786239548495036,"angmin":-1.0472,"angmax":1.0472,"transformer":false,"qt":0.00785694490358555,"tap":1.0,"pf":0.4891569324909242},"1":{"br_r":0.01938,"shift":0.0,"angle":0.07020271773556633,"pt":-1.267671263996191,"br_x":0.05917,"g_to":0.0,"g_fr":0.0,"source_id":["branch",1],"b_fr":0.0264,"f_bus":1,"br_status":1,"t_bus":2,"b_to":0.0264,"index":1,"qf":-0.06364863938297699,"angmin":-1.0472,"angmax":1.0472,"transformer":false,"qt":0.09399574695149565,"tap":1.0,"pf":1.2966923850116212},"12":{"br_r":0.12291,"shift":0.0,"angle":0.014721642116598793,"pt":-0.07579869590409535,"br_x":0.25581,"g_to":0.0,"g_fr":0.0,"source_id":["branch",12],"b_fr":0.0,"f_bus":6,"br_status":1,"t_bus":12,"b_to":0.0,"index":12,"qf":0.026604273025000513,"angmin":-1.0472,"angmax":1.0472,"transformer":false,"qt":-0.0251101720910638,"tap":1.0,"pf":0.07651657224118254},"20":{"br_r":0.17093,"shift":0.0,"angle":0.01206940397605552,"pt":-0.048358084116143486,"br_x":0.34802,"g_to":0.0,"g_fr":0.0,"source_id":["branch",20],"b_fr":0.0,"f_bus":13,"br_status":1,"t_bus":14,"b_to":0.0,"index":20,"qf":0.024231679264595456,"angmin":-1.0472,"angmax":1.0472,"transformer":false,"qt":-0.023275521938397197,"tap":1.0,"pf":0.04882770072371478},"2":{"br_r":0.05403,"shift":0.0,"angle":0.12965079396241305,"pt":-0.6261042925666369,"br_x":0.22304,"g_to":0.0,"g_fr":0.0,"source_id":["branch",2],"b_fr":0.0246,"f_bus":1,"br_status":1,"t_bus":5,"b_to":0.0246,"index":2,"qf":0.06364862965034526,"angmin":-1.0472,"angmax":1.0472,"transformer":false,"qt":-0.03205073481569354,"tap":1.0,"pf":0.646610230670957},"6":{"br_r":0.06701,"shift":0.0,"angle":-0.022009050313158807,"pt":0.1130819364471092,"br_x":0.17103,"g_to":0.0,"g_fr":0.0,"source_id":["branch",6],"b_fr":0.0064,"f_bus":3,"br_status":1,"t_bus":4,"b_to":0.0064,"index":6,"qf":0.045688205544939374,"angmin":-1.0472,"angmax":1.0472,"transformer":false,"qt":-0.056339690830349995,"tap":1.0,"pf":-0.1120881199823976},"11":{"br_r":0.09498,"shift":0.0,"angle":0.007011346207472763,"pt":-0.06038350310790969,"br_x":0.1989,"g_to":0.0,"g_fr":0.0,"source_id":["branch",11],"b_fr":0.0,"f_bus":6,"br_status":1,"t_bus":11,"b_to":0.0,"index":11,"qf":0.04562723181519795,"angmin":-1.0472,"angmax":1.0472,"transformer":false,"qt":-0.044602756641994985,"tap":1.0,"pf":0.06087271704431423},"13":{"br_r":0.06615,"shift":0.0,"angle":0.015591676186011455,"pt":-0.16909012065722584,"br_x":0.13027,"g_to":0.0,"g_fr":0.0,"source_id":["branch",13],"b_fr":0.0,"f_bus":6,"br_status":1,"t_bus":13,"b_to":0.0,"index":13,"qf":0.07726576333668293,"angmin":-1.0472,"angmax":1.0472,"transformer":false,"qt":-0.07317680245517555,"tap":1.0,"pf":0.17116646027733567},"5":{"br_r":0.05695,"shift":0.0,"angle":0.059448076226846724,"pt":-0.36540995147996874,"br_x":0.17388,"g_to":0.0,"g_fr":0.0,"source_id":["branch",5],"b_fr":0.0173,"f_bus":2,"br_status":1,"t_bus":5,"b_to":0.0173,"index":5,"qf":0.01590142534659699,"angmin":-1.0472,"angmax":1.0472,"transformer":false,"qt":-0.030010516960207984,"tap":1.0,"pf":0.37277941758127225},"15":{"br_r":0.0,"shift":0.0,"angle":0.031577784814122434,"pt":-0.313421332371253,"br_x":0.11001,"g_to":0.0,"g_fr":0.0,"source_id":["branch",15],"b_fr":0.0,"f_bus":7,"br_status":1,"t_bus":9,"b_to":0.0,"index":15,"qf":0.030133001518376,"angmin":-1.0472,"angmax":1.0472,"transformer":false,"qt":-0.020171299601093252,"tap":1.0,"pf":0.313421332371253},"16":{"br_r":0.03181,"shift":0.0,"angle":0.004114509896780666,"pt":-0.0647178864211937,"br_x":0.0845,"g_to":0.0,"g_fr":0.0,"source_id":["branch",16],"b_fr":0.0,"f_bus":9,"br_status":1,"t_bus":10,"b_to":0.0,"index":16,"qf":0.03204066121717595,"angmin":-1.0472,"angmax":1.0472,"transformer":false,"qt":-0.03163458506251216,"tap":1.0,"pf":0.0648707536694767},"14":{"br_r":0.0,"shift":0.0,"angle":-0.013492022451949026,"pt":0.08494990649958226,"br_x":0.17615,"g_to":0.0,"g_fr":0.0,"source_id":["branch",14],"b_fr":0.0,"f_bus":7,"br_status":1,"t_bus":8,"b_to":0.0,"index":14,"qf":-0.08052604377273066,"angmin":-1.0472,"angmax":1.0472,"transformer":false,"qt":0.08273039654389282,"tap":1.0,"pf":-0.08494990649958226},"7":{"br_r":0.01335,"shift":0.0,"angle":-0.02158008872680653,"pt":0.49495848457800656,"br_x":0.04211,"g_to":0.0,"g_fr":0.0,"source_id":["branch",7],"b_fr":0.0,"f_bus":4,"br_status":1,"t_bus":5,"b_to":0.0,"index":7,"qf":0.11575338965031338,"angmin":-1.0472,"angmax":1.0472,"transformer":false,"qt":-0.10531448390701346,"tap":1.0,"pf":-0.49164907133476127},"8":{"br_r":0.0,"shift":0.0,"angle":0.044034744902704065,"pt":-0.22847142587167082,"br_x":0.20912,"g_to":0.0,"g_fr":0.0,"source_id":["branch",8],"b_fr":0.0,"f_bus":4,"br_status":1,"t_bus":7,"b_to":0.0,"index":8,"qf":-0.03993770482550931,"angmin":-1.0472,"angmax":1.0472,"transformer":true,"qt":0.05039304225435466,"tap":0.978,"pf":0.22847142587167082},"17":{"br_r":0.12711,"shift":0.0,"angle":0.022286979505097615,"pt":-0.10064191588385651,"br_x":0.27038,"g_to":0.0,"g_fr":0.0,"source_id":["branch",17],"b_fr":0.0,"f_bus":9,"br_status":1,"t_bus":14,"b_to":0.0,"index":17,"qf":0.029520998979000877,"angmin":-1.0472,"angmax":1.0472,"transformer":false,"qt":-0.02672447806160281,"tap":1.0,"pf":0.10195660548297826},"10":{"br_r":0.0,"shift":0.0,"angle":0.09181851778666367,"pt":-0.420555759468599,"br_x":0.25202,"g_to":0.0,"g_fr":0.0,"source_id":["branch",10],"b_fr":0.0,"f_bus":5,"br_status":1,"t_bus":6,"b_to":0.0,"index":10,"qf":0.15137573568291499,"angmin":-1.0472,"angmax":1.0472,"transformer":true,"qt":-0.10903824156686567,"tap":0.932,"pf":0.420555759468599},"19":{"br_r":0.22092,"shift":0.0,"angle":0.0008700340694126618,"pt":-0.014737580066488946,"br_x":0.19988,"g_to":0.0,"g_fr":0.0,"source_id":["branch",19],"b_fr":0.0,"f_bus":12,"br_status":1,"t_bus":13,"b_to":0.0,"index":19,"qf":0.009110172091063799,"angmin":-1.0472,"angmax":1.0472,"transformer":false,"qt":-0.0090548768094199,"tap":1.0,"pf":0.01479869590409536},"9":{"br_r":0.0,"shift":0.0,"angle":0.0756125297168265,"pt":-0.14840602678120193,"br_x":0.55618,"g_to":0.0,"g_fr":0.0,"source_id":["branch",9],"b_fr":0.0,"f_bus":4,"br_status":1,"t_bus":9,"b_to":0.0,"index":9,"qf":0.011667061101960387,"angmin":-1.0472,"angmax":1.0472,"transformer":true,"qt":-0.00042175998389527906,"tap":0.969,"pf":0.14840602678120193},"18":{"br_r":0.08205,"shift":0.0,"angle":-0.0024772643462772637,"pt":0.02538350310790969,"br_x":0.19207,"g_to":0.0,"g_fr":0.0,"source_id":["branch",18],"b_fr":0.0,"f_bus":10,"br_status":1,"t_bus":11,"b_to":0.0,"index":18,"qf":-0.026365414937487834,"angmin":-1.0472,"angmax":1.0472,"transformer":false,"qt":0.02660275664199498,"tap":1.0,"pf":-0.02528211357880631},"3":{"br_r":0.04699,"shift":0.0,"angle":0.10303721526681206,"pt":-0.5424841335073715,"br_x":0.19797,"g_to":0.0,"g_fr":0.0,"source_id":["branch",3],"b_fr":0.0219,"f_bus":2,"br_status":1,"t_bus":3,"b_to":0.0219,"index":3,"qf":0.004741850201546765,"angmin":-1.0472,"angmax":1.0472,"transformer":false,"qt":0.005580864043048012,"tap":1.0,"pf":0.5559266915423758}},"f_max":60,"storage":{},"switch":{},"f_base":60,"baseMVA":100,"variable_f":true,"per_unit":true,"shunt":{"1":{"source_id":["bus",9],"shunt_bus":9,"status":1,"gs":0.0,"bs":0.19,"index":1}},"load":{"4":{"source_id":["bus",5],"load_bus":5,"status":1,"qd":0.016,"pd":0.076,"index":4},"1":{"source_id":["bus",2],"load_bus":2,"status":1,"qd":0.127,"pd":0.217,"index":1},"2":{"source_id":["bus",3],"load_bus":3,"status":1,"qd":0.19,"pd":0.9420000000000001,"index":2},"6":{"source_id":["bus",9],"load_bus":9,"status":1,"qd":0.166,"pd":0.295,"index":6},"11":{"source_id":["bus",14],"load_bus":14,"status":1,"qd":0.05,"pd":0.149,"index":11},"5":{"source_id":["bus",6],"load_bus":6,"status":1,"qd":0.075,"pd":0.11199999999999999,"index":5},"7":{"source_id":["bus",10],"load_bus":10,"status":1,"qd":0.057999999999999996,"pd":0.09,"index":7},"8":{"source_id":["bus",11],"load_bus":11,"status":1,"qd":0.018000000000000002,"pd":0.035,"index":8},"10":{"source_id":["bus",13],"load_bus":13,"status":1,"qd":0.057999999999999996,"pd":0.135,"index":10},"9":{"source_id":["bus",12],"load_bus":12,"status":1,"qd":0.016,"pd":0.061,"index":9},"3":{"source_id":["bus",4],"load_bus":4,"status":1,"qd":-0.039,"pd":0.478,"index":3}}}}}